Circuit: * C:\Users\Asus\OneDrive\Desktop\Draft1.asc

.OP point found by inspection.

Date: Thu Dec 07 12:15:56 2023
Total elapsed time: 0.240 seconds.

tnom = 27
temp = 27
method = modified trap
totiter = 30034
traniter = 30034
tranpoints = 15018
accept = 15018
rejected = 0
matrix size = 5
fillins = 0
solver = Normal
Matrix Compiler1:       9 opcodes  0.0/[0.0]/0.0
Matrix Compiler2: 321 bytes object code size  0.0/0.0/[0.0]

