Circuit: * C:\Users\Asus\OneDrive\Desktop\circuit2.asc


Date: Thu Nov 16 13:26:32 2023
Total elapsed time: 0.023 seconds.

tnom = 27
temp = 27
method = trap
totiter = 163
traniter = 0
tranpoints = 0
accept = 0
rejected = 0
matrix size = 5
fillins = 0
solver = Normal
Avg thread counts: 8.0/0.0/8.0/8.0
Matrix Compiler1: off  [0.1]/0.1/0.1
Matrix Compiler2: 295 bytes object code size  0.1/0.1/[0.1]

