Circuit: * C:\Users\Asus\OneDrive\Desktop\Circuit 4.asc


Date: Thu Nov 23 12:55:03 2023
Total elapsed time: 0.075 seconds.

tnom = 27
temp = 27
method = trap
totiter = 5004
traniter = 0
tranpoints = 0
accept = 0
rejected = 0
matrix size = 10
fillins = 3
solver = Normal
Avg thread counts: 1.5/0.0/2.1/1.5
Matrix Compiler1: 502 bytes object code size  0.3/0.2/[0.2]
Matrix Compiler2: 740 bytes object code size  0.2/0.3/[0.2]

