Circuit: * C:\Users\Asus\OneDrive\Desktop\Draft2.asc

.OP point found by inspection.

Date: Thu Nov 30 11:31:40 2023
Total elapsed time: 0.079 seconds.

tnom = 27
temp = 27
method = modified trap
totiter = 16034
traniter = 16034
tranpoints = 8018
accept = 8018
rejected = 0
matrix size = 3
fillins = 0
solver = Normal
Avg thread counts: 1.2/1.3/1.3/1.2
Matrix Compiler1:       5 opcodes  0.1/[0.1]/0.1
Matrix Compiler2: off  [0.1]/0.1/0.1

