Circuit: * C:\Users\Asus\OneDrive\Desktop\30_22301078_exp9\2k_exp 09.asc

.OP point found by inspection.

Date: Wed Dec 13 15:52:49 2023
Total elapsed time: 0.120 seconds.

tnom = 27
temp = 27
method = modified trap
totiter = 16034
traniter = 16034
tranpoints = 8018
accept = 8018
rejected = 0
matrix size = 3
fillins = 0
solver = Normal
Avg thread counts: 1.2/1.3/1.3/1.2
Matrix Compiler1:       5 opcodes  0.2/[0.1]/0.2
Matrix Compiler2: 163 bytes object code size  0.2/0.1/[0.1]

